!!>>>>>>>>>>>>>>>>>>>>>>>>>>>>>>>>>>>>>>>>>>>>>>>>>>>>>>>>>>>>>>>>>>>>>>
!! NEMO/OCE :   Reference namelist_ref                                !!
!!>>>>>>>>>>>>>>>>>>>>>>>>>>>>>>>>>>>>>>>>>>>>>>>>>>>>>>>>>>>>>>>>>>>>>>
!! NEMO/OCE  :  1 - Domain & run manager (namrun, namcfg, namdom, namtsd, namcrs, namc1d, namc1d_uvd)
!! namelists    2 - Surface boundary (namsbc, namsbc_flx, namsbc_blk, namsbc_cpl,
!!                                    namsbc_sas, namtra_qsr, namsbc_rnf,
!!                                    namsbc_isf, namsbc_iscpl, namsbc_apr, 
!!                                    namsbc_ssr, namsbc_wave, namberg)
!!              3 - lateral boundary (namlbc, namagrif, nambdy, nambdy_tide)
!!              4 - top/bot boundary (namdrg, namdrg_top, namdrg_bot, nambbc, nambbl)
!!              5 - Tracer           (nameos, namtra_adv, namtra_ldf, namtra_eiv, namtra_dmp)
!!              6 - dynamics         (namdyn_adv, namdyn_vor, namdyn_hpg, namdyn_spg, namdyn_ldf)
!!              7 - Vertical physics (namzdf, namzdf_ric, namzdf_tke, namzdf_gls, namzdf_iwm)
!!              8 - diagnostics      (namnc4, namtrd, namspr, namflo, namhsb)
!!              9 - Obs & Assim      (namobs, nam_asminc)
!!             10 - miscellaneous    (nammpp, namctl, namsto)
!!>>>>>>>>>>>>>>>>>>>>>>>>>>>>>>>>>>>>>>>>>>>>>>>>>>>>>>>>>>>>>>>>>>>>>>

!!======================================================================
!!              ***  Domain & Run management namelists  ***           !!
!!                                                                    !!
!!   namrun       parameters of the run
!!   namdom       space and time domain
!!   namcfg       parameters of the configuration                       (default: user defined GYRE)
!!   namwad       Wetting and drying                                    (default: OFF)
!!   namtsd       data: temperature & salinity                          (default: OFF)
!!   namcrs       coarsened grid (for outputs and/or TOP)               (ln_crs =T)
!!   namc1d       1D configuration options                              ("key_c1d")
!!   namc1d_dyndmp 1D newtonian damping applied on currents             ("key_c1d")
!!   namc1d_uvd   1D data (currents)                                    ("key_c1d")
!!======================================================================
!
!-----------------------------------------------------------------------
&namrun        !   parameters of the run
!-----------------------------------------------------------------------
   cn_exp      = "ORCH0083-LIM3"  !  experience name 
   nn_it000    =        1   !  first  time step
   nn_itend    =      288  !  last  time step
   nn_date0    = 19480101  !  date at nit_0000 (format yyyymmdd) used if ln_rstart=F or (ln_rstart=T and nn_rstctl=0 or 1)
   nn_leapy    =       0   !  Leap year calendar (1) or not (0)
   ln_rstart   =  .false.   !  start from rest (F) or from a restart file (T)
   ln_reset_ts =  .false.   ! 
   nn_rstctl   =       2   !  restart control => activated only if ln_rstart = T
                           !    = 0 nn_date0 read in namelist ; nn_it000 : read in namelist
                           !    = 1 nn_date0 read in namelist ; nn_it000 : check consistancy between namelist and restart
                           !    = 2 nn_date0 read in restart  ; nn_it000 : check consistancy between namelist and restart
      cn_ocerst_in  = "ORCH0083-LIM3_03670272_restart_oce"   !  prefix of ocean restart name (input)
      cn_ocerst_indir = "./RESTARTS"    !  directory from which to read input ocean restarts
      cn_ocerst_out = "restart_oce"     !  suffix of ocean restart name (output)
      cn_ocerst_outdir = "./RESTARTS"   !  directory in which to write output ocean restarts
   nn_istate   =       0   !  output the initial state (1) or not (0)
   ln_mskland  = .false.   !  mask land points in NetCDF outputs (costly: + ~15%)
   ln_rst_list = .false.    !  output restarts at list of times using nn_stocklist (T) or at set frequency with nn_stock (F)
   nn_stocklist = 3679200
   nn_stock    = 8928    !  frequency of creation of a restart file (modulo referenced to 1)
   ln_clobber  = .true.    !  clobber (overwrite) an existing file
/
!-----------------------------------------------------------------------
&namdom        !   time and space domain
!-----------------------------------------------------------------------
   ln_linssh   = .false.   !  =T  linear free surface  ==>>  model level are fixed in time
   rn_isfhmin  =    1.00   !  treshold (m) to discriminate grounding ice to floating ice
   rn_rdt      =   300.    !  time step for the dynamics (and tracer if nacc=0)   ==> 5760
/
!-----------------------------------------------------------------------
&namcfg        !   parameters of the configuration                      (default: use namusr_def in namelist_cfg)
!-----------------------------------------------------------------------
   ln_read_cfg = .true.               !  (=T) read the domain configuration file
   cn_domcfg   = "./INPUTS/domain_cfg_szt"         ! domain configuration filename
/
!-----------------------------------------------------------------------
&namtsd        !    Temperature & Salinity Data  (init/dmp)             (default: OFF)
!-----------------------------------------------------------------------
   !                       ! =T  read T-S fields for:!          !  file name                                 ! frequency (hours) ! variable  ! time interp. !  clim  ! 'yearly'/ !                 weights                  ! rotation ! land/sea mask !
!          !                                            !  (if <0  months)  !   name    !   (logical)  !  (T/F) ! 'monthly' !                 filename                 ! pairing  ! filename      !
   sn_tem  = 'ECCOv4_EN4.1.1_TEOS-10'   ,         -1        ,'votemper' ,     .true.   , .true. , 'yearly'   , 'eORCA12_EN4.1.1f_reg_weights_bilin_munday.nc' ,    ''    ,      ''
   sn_sal  = 'ECCOv4_EN4.1.1_TEOS-10'   ,         -1        ,'vosaline' ,     .true.   , .true. , 'yearly'   , 'eORCA12_EN4.1.1f_reg_weights_bilin_munday.nc' ,    ''    ,      ''
   sn_dep  = 'initcd_dept'                                             ,     -12  ,'deptht_4D',   .false.   , .true.  , 'yearly'   , 'eORCA12_EN4.1.1f_reg_weights_bilin_munday.nc' ,    ''    ,      ''
   sn_msk  = 'initcd_mask'                                      ,     -12  ,'mask'     ,   .false.   , .true.  , 'yearly'   , 'eORCA12_EN4.1.1f_reg_weights_bilin_munday.nc' ,    ''    ,      ''
   
   cn_dir  = './INPUTS/'
   ln_tsd_init   = .true.   !  Initialisation of ocean T & S with T &S input data (T) or not (F)
   ln_tsd_interp = .true.    !  Interpolation of T & S in the verticalinput data (T) or not (F)
   ln_tsd_tradmp = .false.  !  damping of ocean T & S toward T &S input data (T) or not (F)
/
!-----------------------------------------------------------------------
&namwad        !   Wetting and Drying (WaD)                             (default: OFF)
!-----------------------------------------------------------------------
/
!
!!======================================================================
!!            ***  Surface Boundary Condition namelists  ***          !!
!!                                                                    !!
!!   namsbc          surface boundary condition manager                 (default: NO selection)
!!   namsbc_flx      flux               formulation                     (ln_flx     =T)
!!   namsbc_blk      Bulk formulae formulation                          (ln_blk     =T)
!!   namsbc_cpl      CouPLed            formulation                     ("key_oasis3" )
!!   namsbc_sas      Stand-Alone Surface module                         (SAS_SRC  only)
!!   namsbc_iif      Ice-IF: use observed ice cover                     (nn_ice = 1   )
!!   namtra_qsr      penetrative solar radiation                        (ln_traqsr  =T)
!!   namsbc_ssr      sea surface restoring term (for T and/or S)        (ln_ssr     =T)
!!   namsbc_rnf      river runoffs                                      (ln_rnf     =T)
!!   namsbc_apr      Atmospheric Pressure                               (ln_apr_dyn =T)
!!   namsbc_isf      ice shelf melting/freezing                         (ln_isfcav  =T : read (ln_read_cfg=T) or set or usr_def_zgr )
!!   namsbc_iscpl    coupling option between land ice model and ocean   (ln_isfcav  =T)
!!   namsbc_wave     external fields from wave model                    (ln_wave    =T)
!!   namberg         iceberg floats                                     (ln_icebergs=T)
!!======================================================================
!
!-----------------------------------------------------------------------
&namsbc        !   Surface Boundary Condition manager                   (default: NO selection)
!-----------------------------------------------------------------------
   nn_fsbc     = 1         !  frequency of surface boundary condition computation (also = the frequency of sea-ice model call)
   ln_usr      = .false.   !  user defined formulation                  (T => check usrdef_sbc)
   ln_flx      = .false.   !  flux formulation                          (T => fill namsbc_flx )
   ln_blk      = .true.    !  Bulk formulation                          (T => fill namsbc_blk )
   ln_apr_dyn  = .false.   !  Patm gradient added in ocean & ice Eqs.   (T => fill namsbc_apr )
                     ! Sea-ice :
   nn_ice      = 2         !  =0 no ice boundary condition    
      !                    !  =1 use observed ice-cover                 (  => fill namsbc_iif )
      !                    !  =2 or 3 automatically for SI3 or CICE    ("key_si3" or "key_cice")
      !                    !          except in AGRIF zoom where it has to be specified
   ln_ice_embd = .false.   !  =T embedded sea-ice (pressure + mass and salt exchanges)
      !                    !  =F levitating ice (no pressure, mass and salt exchanges)
    ln_traqsr   = .true.    !  Light penetration in the ocean            (T => fill namtra_qsr)
   ln_dm2dc    = .true.    !  daily mean to diurnal cycle on short wave
   ln_rnf      = .true.    !  runoffs                                   (T => fill namsbc_rnf)
   ln_ssr      = .false.   !  Sea Surface Restoring on T and/or S       (T => fill namsbc_ssr)
   nn_fwb      = 1         !  FreshWater Budget: =0 unchecked
                           !     =1 global mean of e-p-r set to zero at each time step
                           !     =2 annual global mean of e-p-r set to zero
   ln_isf      = .true.    !  ice shelf                                 (T   => fill namsbc_isf)
/
!-----------------------------------------------------------------------
&namsbc_blk    !   namsbc_blk  generic Bulk formula                     (ln_blk =T)
!-----------------------------------------------------------------------
!              !  file name                     ! frequency (hours) ! variable   !  time interp. !  clim  ! 'yearly'/  ! weights                   ! rotation ! land/sea mask !
!              !                                !  (if <0  months)  !   name     !   (logical)   !  (T/F) ! 'monthly'  ! filename                  ! pairing  ! filename      !
   sn_wndi     = 'U_10_MOD_15JUNE2009_unmasked' ,         6         ,  'U_10_MOD',    .true.     , .true. ,  'yearly'  , 'weights_bicub_munday.nc' ,   'U1'   ,        ''
   sn_wndj     = 'V_10_MOD_15JUNE2009_unmasked' ,         6         ,  'V_10_MOD',    .true.     , .true. ,  'yearly'  , 'weights_bicub_munday.nc' ,   'V1'   ,        ''
   sn_qsr      = 'SWDN_MOD_15JUNE2009_unmasked' ,         24        ,  'SWDN_MOD',    .false.    , .true. ,  'yearly'  , 'weights_bilin_munday.nc' ,    ''    ,        ''
   sn_qlw      = 'LWDN_MOD_15JUNE2009_unmasked' ,         24        ,  'LWDN_MOD',    .false.    , .true. ,  'yearly'  , 'weights_bilin_munday.nc' ,    ''    ,        ''
   sn_tair     = 'T_10_MOD_15JUNE2009_unmasked' ,         6         ,  'T_10_MOD',    .true.     , .true. ,  'yearly'  , 'weights_bilin_munday.nc' ,    ''    ,        ''
   sn_humi     = 'Q_10_MOD_15JUNE2009_unmasked' ,         6         ,  'Q_10_MOD',    .true.     , .true. ,  'yearly'  , 'weights_bilin_munday.nc' ,    ''    ,        ''
   sn_prec     = 'TPRECIP_15JUNE2009_unmasked'  ,         -1        ,  'TPRECIP' ,    .true.     , .true. ,  'yearly'  , 'weights_bilin_munday.nc' ,    ''    ,        ''
   sn_snow     = 'SNOW_15JUNE2009_unmasked'     ,         -1        ,  'SNOW'    ,    .true.     , .true. ,  'yearly'  , 'weights_bilin_munday.nc' ,    ''    ,        ''
   sn_slp      = 'SLP.15JUNE2009'               ,         6         ,  'SLP'     ,    .true.     , .true. ,  'yearly'  , 'weights_bilin_munday.nc' ,    ''    ,        ''
!
   !                       !  bulk algorithm :
   ln_NCAR     = .true.    ! "NCAR"      algorithm   (Large and Yeager 2008)
   ln_COARE_3p0= .false.   ! "COARE 3.0" algorithm   (Fairall et al. 2003)
   ln_COARE_3p5= .false.   ! "COARE 3.5" algorithm   (Edson et al. 2013)
   ln_ECMWF    = .false.   ! "ECMWF"     algorithm   (IFS cycle 31)
   !
   cn_dir      = './FORCING/'      !  root directory for the location of the bulk files
   ln_taudif   = .false.   !  HF tau contribution: use "mean of stress module - module of the mean stress" data ?
! ACC   rn_zqt      = 2.        !  Air temperature and humidity reference height (m) (ln_bulk2z) <-- EY comments that the reference height might differ between the
! PM    rn_zqt      = 10.       !  Air temperature and humidity reference height (m) (ln_bulk2z) <-- interannually varying and normal year forcing.
   rn_zqt      = 10.       !  Air temperature and humidity reference height (m) (ln_bulk2z)
   rn_zu       = 10.       !  Wind vector reference height (m)                  (ln_bulk2z)
   rn_pfac     = 1.        !  multiplicative factor for precipitation (total & snow)
   rn_efac     = 1.        !  multiplicative factor for evaporation (0. or 1.)
   rn_vfac     = 1.        !  multiplicative factor for ocean/ice velocity in the calculation of the wind stress (0.=absolute winds or 1.=relative winds)
   ln_Cd_L12   = .false.   !  Modify the drag ice-atm and oce-atm depending on ice concentration
                           !  This parameterization is from Lupkes et al. (JGR 2012)
/
!-----------------------------------------------------------------------
&namtra_qsr    !   penetrative solar radiation                          (ln_traqsr =T)
!-----------------------------------------------------------------------
   ln_qsr_rgb  = .false.   !  RGB (Red-Green-Blue) light penetration
   ln_qsr_2bd  = .true.    !  2 bands              light penetration
   ln_qsr_bio  = .false.   !  bio-model light penetration
   nn_chldta   =      0    !  RGB : Chl data (=1) or cst value (=0)
/
!-----------------------------------------------------------------------
&namsbc_rnf    !   runoffs                                              (ln_rnf =T)
!-----------------------------------------------------------------------
!              !  file name           ! frequency (hours) ! variable  ! time interp. !  clim  ! 'yearly'/ ! weights  ! rotation ! land/sea mask !
!              !                      !  (if <0  months)  !   name    !   (logical)  !  (T/F) ! 'monthly' ! filename ! pairing  ! filename      !
   sn_rnf      = 'eORCA12_runoff_munday_modified',        -1         , 'sorunoff',   .true.     , .true. , 'yearly'  , ''       , ''       , ''
   sn_cnf      = 'eORCA12_runoff_munday_modified',         -12       , 'socoefr' ,   .false.    , .true. , 'yearly'  , ''       , ''       , ''
   cn_dir       = './FORCING/'      !  root directory for the location of the runoff files
! DE   rn_hrnf      =  15.e0    !  depth over which enhanced vertical mixing is used
! DE  rn_avt_rnf   =   1.e-3   !  value of the additional vertical mixing coef. [m2/s]
! PM   rn_hrnf      =  10.e0    !  depth over which enhanced vertical mixing is used
! PM  rn_avt_rnf   =   2.e-3   !  value of the additional vertical mixing coef. [m2/s]
   rn_hrnf      =  10.e0    !  depth over which enhanced vertical mixing is used
   rn_avt_rnf   =   2.e-3   !  value of the additional vertical mixing coef. [m2/s]
/
!-----------------------------------------------------------------------
&namsbc_isf    !  Top boundary layer (ISF) 
!-----------------------------------------------------------------------
   nn_isf      = 3         !  ice shelf melting/freezing                (/=0 => fill namsbc_isf)
                           !  0 =no isf                  1 = presence of ISF 
                           !  2 = bg03 parametrisation   3 = rnf file for isf   
                           !  4 = ISF fwf specified
                           !  option 1 and 4 need ln_isfcav = .true. (domzgr)
!               !  file name              ! frequency (hours) !  variable  ! time interp. !  clim  ! 'yearly'/ ! weights  ! rotation ! land/sea mask !
!               !                         !  (if <0  months)  !    name    !   (logical)  !  (T/F) ! 'monthly' ! filename ! pairing  ! filename      !
   sn_rnfisf    = './FORCING/eORCA12_runoff_munday_modified' ,         -1        , 'sofwfisf' ,    .true.    , .true. , 'yearly'  ,    ''    ,   ''     ,    ''
   sn_depmax_isf= './FORCING/eORCA12_runoff_munday_modified' ,         -12       , 'sozisfmax',    .false.   , .true. , 'yearly'  ,    ''    ,   ''     ,    ''
   sn_depmin_isf= './FORCING/eORCA12_runoff_munday_modified' ,         -12       , 'sozisfmin',    .false.   , .true. , 'yearly'  ,    ''    ,   ''     ,    ''
/
!-----------------------------------------------------------------------
&namsbc_apr    !   Atmospheric pressure used as ocean forcing           (ln_apr_dyn =T)
!-----------------------------------------------------------------------
/
!-----------------------------------------------------------------------
&namsbc_ssr    !   surface boundary condition : sea surface restoring
!-----------------------------------------------------------------------
/
!-----------------------------------------------------------------------
&namsbc_alb    !   albedo parameters
!-----------------------------------------------------------------------
  nn_ice_alb   =    0   !  parameterization of ice/snow albedo
                         !     0: Shine & Henderson-Sellers (JGR 1985), giving clear-sky albedo
                         !     1: "home made" based on Brandt et al. (JClim 2005) and Grenfell & Perovich (JGR 2004),
                         !        giving cloud-sky albedo
   rn_alb_sdry  =  0.80  !  dry snow albedo         : 0.80 (nn_ice_alb = 0); 0.85 (nn_ice_alb = 1); obs 0.85-0.87 (cloud-sky)
   rn_alb_smlt  =  0.65  !  melting snow albedo     : 0.65 ( '' )          ; 0.75 ( '' )          ; obs 0.72-0.82 ( '' )
   rn_alb_idry  =  0.72  !  dry ice albedo          : 0.72 ( '' )          ; 0.60 ( '' )          ; obs 0.54-0.65 ( '' )
   rn_alb_imlt  =  0.54  !  bare puddled ice albedo : 0.53 ( '' )          ; 0.50 ( '' )          ; obs 0.49-0.58 ( '' )
/
!-----------------------------------------------------------------------
&namsbc_wave   ! External fields from wave model
!-----------------------------------------------------------------------
/
!-----------------------------------------------------------------------
&namberg       !   iceberg parameters
!-----------------------------------------------------------------------
   ln_icebergs              = .false.              ! iceberg floats or not
   ln_bergdia               = .true.               ! Calculate budgets
   nn_verbose_level         = 1                    ! Turn on more verbose output if level > 0
   nn_verbose_write         = 15                   ! Timesteps between verbose messages
   nn_sample_rate           = 1                    ! Timesteps between sampling for trajectory storage
                                                   ! Initial mass required for an iceberg of each class
   rn_initial_mass          = 8.8e7, 4.1e8, 3.3e9, 1.8e10, 3.8e10, 7.5e10, 1.2e11, 2.2e11, 3.9e11, 7.4e11
                                                   ! Proportion of calving mass to apportion to each class
   rn_distribution          = 0.24, 0.12, 0.15, 0.18, 0.12, 0.07, 0.03, 0.03, 0.03, 0.02
                                                   ! Ratio between effective and real iceberg mass (non-dim)
                                                   ! i.e. number of icebergs represented at a point
   rn_mass_scaling          = 2000, 200, 50, 20, 10, 5, 2, 1, 1, 1
                                                   ! thickness of newly calved bergs (m)
   rn_initial_thickness     = 40., 67., 133., 175., 250., 250., 250., 250., 250., 250.
   rn_rho_bergs             = 850.                 ! Density of icebergs
   rn_LoW_ratio             = 1.5                  ! Initial ratio L/W for newly calved icebergs
   ln_operator_splitting    = .true.               ! Use first order operator splitting for thermodynamics
   rn_bits_erosion_fraction = 0.                   ! Fraction of erosion melt flux to divert to bergy bits
   rn_sicn_shift            = 0.                   ! Shift of sea-ice concn in erosion flux (0<sicn_shift<1)
   ln_passive_mode          = .false.              ! iceberg - ocean decoupling
   nn_test_icebergs         =  10                  ! Create test icebergs of this class (-1 = no)
                                                   ! Put a test iceberg at each gridpoint in box (lon1,lon2,lat1,lat2)
   rn_test_box              = 108.0,  116.0, -66.0, -58.0
   rn_speed_limit           = 0.                   ! CFL speed limit for a berg

!            ! file name              ! frequency (hours) ! variable  ! time interp.!  clim   ! 'yearly'/ ! weights  ! rotation ! land/sea mask !
!            !                        !  (if <0  months)  !    name   !  (logical)  !  (T/F ) ! 'monthly' ! filename ! pairing  ! filename      !
      sn_icb =  'eORCA12_calving_munday',       -12          , 'calving',   .true.    , .true.  , 'yearly'  ,    ''    ,    ''    ,     ''
      cn_dir = './FORCING/'
/

!!======================================================================
!!               ***  Lateral boundary condition  ***                 !!
!!                                                                    !!
!!   namlbc        lateral momentum boundary condition                  (default: NO selection)
!!   namagrif      agrif nested grid   (read by child model only)       ("key_agrif")
!!   nam_tide      Tidal forcing                                        (default: OFF)
!!   nambdy        Unstructured open boundaries                         (default: OFF)
!!   nambdy_dta    Unstructured open boundaries - external data         (see  nambdy)
!!   nambdy_tide   tidal forcing at open boundaries                     (default: OFF)
!!======================================================================
!
!-----------------------------------------------------------------------
&namlbc        !   lateral momentum boundary condition                  (default: NO selection)
!-----------------------------------------------------------------------
   rn_shlat    =    0.     !  shlat = 0  !  0 < shlat < 2  !  shlat = 2  !  2 < shlat
                           !  free slip  !   partial slip  !   no slip   ! strong slip
   ln_vorlat   = .false.,  !  consistency of vorticity boundary condition with analytical eqs.
/
!-----------------------------------------------------------------------
&namagrif      !  AGRIF zoom                                            ("key_agrif")
!-----------------------------------------------------------------------
/
!-----------------------------------------------------------------------
&nam_tide      !   tide parameters
!-----------------------------------------------------------------------
   ln_tide     = .false.
   ln_tide_pot = .false.    !  use tidal potential forcing
   ln_tide_ramp= .false.   !
   rdttideramp =   1.     !

    clname(1) =  'M2'
    clname(2) =  'S2'
    clname(3) =  'N2'
    clname(4) =  'K2'
    clname(5) =  'K1'
    clname(6) =  'O1'
    clname(7) =  'P1'
    clname(8) =  'Q1'
    clname(9) =  'M4'
/
!-----------------------------------------------------------------------
&nambdy        !  unstructured open boundaries                          (default: OFF)
!-----------------------------------------------------------------------
    ln_bdy         = .true.               !  Use unstructured open boundaries
    nb_bdy         = 1                    !  number of open boundary sets
    ln_coords_file = .true.               !  =T : read bdy coordinates from file
    cn_coords_file = '../BDY_ECCO_RW24/coordinates.bdy.nc' !  bdy coordinates files
    ln_mask_file   = .true.               !  =T : read mask from file
    cn_mask_file   = './INPUTS/domain_cfg_szt'           !  name of mask file (if ln_mask_file=.TRUE.)
    cn_dyn2d       = 'flather'            !
    nn_dyn2d_dta   = 1                    !  = 0, bdy data are equal to the initial state
                                          !  = 1, bdy data are read in 'bdydata   .nc' files
                                          !  = 2, use tidal harmonic forcing data from files
                                          !  = 3, use external data AND tidal harmonic forcing
    cn_dyn3d      =  'neumann'            !
    nn_dyn3d_dta  =  1                    !  = 0, bdy data are equal to the initial state
                                          !  = 1, bdy data are read in 'bdydata   .nc' files
    cn_tra        =  'frs'                !
    nn_tra_dta    =  1                    !  = 0, bdy data are equal to the initial state
                                          !  = 1, bdy data are read in 'bdydata   .nc' files
    cn_ice      =  'none'             !
    nn_ice_dta  =  0                  !  = 0, bdy data are equal to the initial state
                                          !  = 1, bdy data are read in 'bdydata   .nc' files

                                          !
    ln_tra_dmp    =.false.                !  open boudaries conditions for tracers
    ln_dyn3d_dmp  =.false.                !  open boundary condition for baroclinic velocities
    rn_time_dmp   =  10.                  ! Damping time scale in days
    rn_time_dmp_out =  10.                ! Outflow damping time scale
    nn_rimwidth   = 24                    !  width of the relaxation zone
    ln_vol        = .true.                !  total volume correction (see nn_volctl parameter)
    nn_volctl     = 0                     !  = 0, the total water flux across open boundaries is zero
/
!-----------------------------------------------------------------------
&nambdy_dta    !  open boundaries - external data                       (see nam_bdy)
!-----------------------------------------------------------------------
   ln_zinterp  = .true.      !  T if a vertical interpolation is required. Variables gdep[tuv] and e3[tuv] must exist in the file
   !                          !  automatically defined to T if the number of vertical levels in bdy dta /= jpk
   ln_full_vel = .false.      !  T if [uv]3d are "full" velocities and not only its baroclinic components
   !                          !  in this case, baroclinic and barotropic velocities will be recomputed -> [uv]2d not needed
!            !  file name                  ! frequency (hours) !   variable   ! time interp. !  clim   !  'yearly'/  ! weights  ! rotation ! land/sea mask !
!            !                             !  (if <0  months)  !     name     !   (logical)  !  (T/F ) !  'monthly'  ! filename ! pairing  ! filename      !
   bn_ssh  =      'SO_ECCO_RW24_bt_bdyT'   ,       -1          ,  'sossheig'  ,    .true.    , .true.  ,  'monthly'  ,    ''    ,   ''     ,     ''
   bn_u2d  =      'SO_ECCO_RW24_bdyU'      ,       -1          ,  'vobtcrtx'  ,    .true.    , .true.  ,  'monthly'  ,    ''    ,   ''     ,     ''
   bn_v2d  =      'SO_ECCO_RW24_bdyV'      ,       -1          ,  'vobtcrty'  ,    .true.    , .true.  ,  'monthly'  ,    ''    ,   ''     ,     ''
   bn_u3d  =      'SO_ECCO_RW24_bdyU'      ,       -1          ,  'vozocrtx'  ,    .true.    , .true.  ,  'monthly'  ,    ''    ,   ''     ,     ''
   bn_v3d  =      'SO_ECCO_RW24_bdyV'      ,       -1          ,  'vomecrty'  ,    .true.    , .true.  ,  'monthly'  ,    ''    ,   ''     ,     ''
   bn_tem  =      'SO_ECCO_RW24_bdyT'      ,       -1          ,  'votemper'  ,    .true.    , .true.  ,  'monthly'  ,    ''    ,   ''     ,     ''
   bn_sal  =      'SO_ECCO_RW24_bdyT'      ,       -1          ,  'vosaline'  ,    .true.    , .true.  ,  'monthly'  ,    ''    ,   ''     ,     ''
   cn_dir  =      './BDY_ECCO_RW24/'
/
!-----------------------------------------------------------------------
&nambdy_tide   !  tidal forcing at open boundaries
!-----------------------------------------------------------------------
   ln_bdytide_2ddta = .false.                   !
   ln_bdytide_conj  = .false.                   !
   filtide          = './TIDE/SO_R12_bdytide_'      !     './bdy/SO_R12_bdytide_'   !  file name root of tidal forcing files
/
!
!!======================================================================
!!                ***  Top/Bottom boundary condition  ***             !!
!!                                                                    !!
!!   namdrg        top/bottom drag coefficient                          (default: NO selection)
!!   namdrg_top    top    friction                                      (ln_drg_OFF=F & ln_isfcav=T)
!!   namdrg_bot    bottom friction                                      (ln_drg_OFF=F)
!!   nambbc        bottom temperature boundary condition                (default: OFF)
!!   nambbl        bottom boundary layer scheme                         (default: OFF)
!!======================================================================
!
!-----------------------------------------------------------------------