!!>>>>>>>>>>>>>>>>>>>>>>>>>>>>>>>>>>>>>>>>>>>>>>>>>>>>>>>>>>>>>>>>>>>>>>
!! NEMO/OCE :   Reference namelist_cfg                                !!
!!>>>>>>>>>>>>>>>>>>>>>>>>>>>>>>>>>>>>>>>>>>>>>>>>>>>>>>>>>>>>>>>>>>>>>>
!! NEMO/OCE  :  1 - Domain & run manager (namrun, namcfg, namdom, namtsd, namcrs, namc1d, namc1d_uvd)
!! namelists    2 - Surface boundary (namsbc, namsbc_flx, namsbc_blk, namsbc_cpl,
!!                                    namsbc_sas, namtra_qsr, namsbc_rnf,
!!                                    namsbc_isf, namsbc_iscpl, namsbc_apr, 
!!                                    namsbc_ssr, namsbc_wave, namberg)
!!              3 - lateral boundary (namlbc, namagrif, nambdy, nambdy_tide)
!!              4 - top/bot boundary (namdrg, namdrg_top, namdrg_bot, nambbc, nambbl)
!!              5 - Tracer           (nameos, namtra_adv, namtra_ldf, namtra_eiv, namtra_dmp)
!!              6 - dynamics         (namdyn_adv, namdyn_vor, namdyn_hpg, namdyn_spg, namdyn_ldf)
!!              7 - Vertical physics (namzdf, namzdf_ric, namzdf_tke, namzdf_gls, namzdf_iwm)
!!              8 - diagnostics      (namnc4, namtrd, namspr, namflo, namhsb)
!!              9 - Obs & Assim      (namobs, nam_asminc)
!!             10 - miscellaneous    (nammpp, namctl, namsto)
!!>>>>>>>>>>>>>>>>>>>>>>>>>>>>>>>>>>>>>>>>>>>>>>>>>>>>>>>>>>>>>>>>>>>>>>

!!======================================================================
!!              ***  Domain & Run management namelists  ***           !!
!!                                                                    !!
!!   namrun       parameters of the run
!!   namdom       space and time domain
!!   namcfg       parameters of the configuration                       (default: user defined GYRE)
!!   namwad       Wetting and drying                                    (default: OFF)
!!   namtsd       data: temperature & salinity                          (default: OFF)
!!   namcrs       coarsened grid (for outputs and/or TOP)               (ln_crs =T)
!!   namc1d       1D configuration options                              ("key_c1d")
!!   namc1d_dyndmp 1D newtonian damping applied on currents             ("key_c1d")
!!   namc1d_uvd   1D data (currents)                                    ("key_c1d")
!!======================================================================
!
!-----------------------------------------------------------------------
&namrun        !   parameters of the run
!-----------------------------------------------------------------------
   nn_no       =       0   !  Assimilation cycle index
   cn_exp      =  "ORCH0083-LIM3"  !  experiment name
   nn_it000    =        1  !  first time step
   nn_itend    =     8928  !  last  time step (std 5840)
   nn_date0    =  19480101 !  date at nit_0000 (format yyyymmdd) used if ln_rstart=F or (ln_rstart=T and nn_rstctl=0 or 1)
   nn_time0    =       0   !  initial time of day in hhmm
   nn_leapy    =       0   !  Leap year calendar (1) or not (0)
   ln_rstart   = .false.   !  start from rest (F) or from a restart file (T)
   ln_reset_ts =  .false.  !  reset the T/S read from restart file with initial condition (T) or not (F).
      nn_euler    =    1      !  = 0 : start with forward time step if ln_rstart=T
      nn_rstctl   =    2      !  restart control ==> activated only if ln_rstart=T
      !                          !    = 2 nn_date0 read in restart  ; nn_it000 : check consistancy between namelist and restart
      cn_ocerst_in     = "ORCH0083-LIM3_03784608_restart_oce"   !  prefix of ocean restart name (input)
      cn_ocerst_indir  = "./RESTARTS/"     !  directory from which to read input ocean restarts
      cn_ocerst_out    = "restart_oce"     !  suffix of ocean restart name (output)
      cn_ocerst_outdir = "./RESTARTS/"     !  directory in which to write output ocean restarts
   nn_istate   =       0   !  output the initial state (1) or not (0)
   ln_iscpl    = .false.   !  cavity evolution forcing or coupling to ice sheet model
   ln_rst_list = .false.   !  output restarts at list of times using nn_stocklist (T) or at set frequency with nn_stock (F)
   nn_stock    =    8928   !  used only if ln_rst_list = F: output restart freqeuncy (modulo referenced to 1)
   nn_stocklist = 3800736, 3801888  !  List of timesteps when a restart file is to be written
   nn_write    =       0   !  used only if key_iomput is not defined: output frequency (modulo referenced to nn_it000)
   ln_mskland  = .false.   !  mask land points in NetCDF outputs
   ln_cfmeta   = .false.   !  output additional data to netCDF files required for compliance with the CF metadata standard
   ln_clobber  = .true.    !  clobber (overwrite) an existing file
   nn_chunksz  =       0   !  chunksize (bytes) for NetCDF file (works only with iom_nf90 routines)
   ln_xios_read = .true.   !  use XIOS to read restart file (only for a single file restart)
   nn_wxios    = 0            !  use XIOS to write restart file 0 - no, 1 - single file output, 2 - multiple file output
/
!-----------------------------------------------------------------------
&namdom        !   time and space domain
!-----------------------------------------------------------------------
   ln_linssh   = .false.   !  =T  linear free surface  ==>>  model level are fixed in time
   rn_isfhmin  =    1.00   !  treshold [m] to discriminate grounding ice from floating ice
   rn_rdt      =  300.     !  time step for the dynamics and tracer
   rn_atfp     =    0.1    !  asselin time filter parameter
   ln_crs      = .false.   !  Logical switch for coarsening module      (T => fill namcrs)
   ln_meshmask = .false.   !  =T create a mesh file
/
!-----------------------------------------------------------------------
&namcfg        !   parameters of the configuration                      (default: use namusr_def in namelist_cfg)
!-----------------------------------------------------------------------
   ln_read_cfg = .true.    !  (=T) read the domain configuration file (=F) user defined configuration (F => create/check namusr_def)
      cn_domcfg = "domain_cfg"  ! domain configuration filename
      ln_closea    = .false.    !  T => keep closed seas (defined by closea_mask field) in the  
      !                         !       domain and apply special treatment of freshwater fluxes.
      !                         !  F => suppress closed seas (defined by closea_mask field) 
      !                         !       from the bathymetry at runtime.
      !                         !  If closea_mask field doesn't exist in the domain_cfg file
      !                         !       then this logical does nothing.
   ln_write_cfg = .false.   !  (=T) create the domain configuration file
      cn_domcfg_out = "domain_cfg_out" ! newly created domain configuration filename
   ln_use_jattr = .false.  !  use (T) the file attribute: open_ocean_jstart, if present in netcdf input files, as the start j-row for reading
/
!-----------------------------------------------------------------------
&namtsd        !    Temperature & Salinity Data  (init/dmp)             (default: OFF)
!-----------------------------------------------------------------------
   !                       ! =T  read T-S fields for:
   ln_tsd_init = .true.          !  ocean initialisation
   ln_tsd_interp = .false.       !  interpolation of initial conditions?
   ln_tsd_dmp  = .false.         !  T-S restoring   (see namtra_dmp)   
   cn_dir      = './INPUTS/'     !  root directory for the T-S data location
   !___________!_________________________!___________________!___________!_____________!________!___________!______________________________________________!__________!_______________!
   !           !  file name              ! frequency (hours) ! variable  ! time interp.!  clim  ! 'yearly'/ !               weights filename               ! rotation ! land/sea mask !
   !           !                         !  (if <0  months)  !   name    !   (logical) !  (T/F) ! 'monthly' !                                              ! pairing  !    filename   !
   sn_tem      = 'ECCOv4_EN4.1.1_TEOS-10',        -1.        , 'votemper',   .true.    , .true. , 'yearly'  ,'eORCA12_EN4.1.1f_reg_weights_bilin_munday.nc',    ''    ,      ''
   sn_sal      = 'ECCOv4_EN4.1.1_TEOS-10',        -1.        , 'vosaline',   .true.    , .true. , 'yearly'  ,'eORCA12_EN4.1.1f_reg_weights_bilin_munday.nc',    ''    ,      ''
   sn_dep      = 'initcd_dept'           ,       -12         ,'deptht_4D',   .false.   , .true.  , 'yearly' ,'eORCA12_EN4.1.1f_reg_weights_bilin_munday.nc',    ''    ,      ''
   sn_msk      = 'initcd_mask'           ,       -12         ,  'mask'   ,   .false.   , .true.  , 'yearly' ,'eORCA12_EN4.1.1f_reg_weights_bilin_munday.nc',    ''    ,      ''
/
!-----------------------------------------------------------------------
&namwad        !   Wetting and Drying (WaD)                             (default: OFF)
!-----------------------------------------------------------------------
/
!-----------------------------------------------------------------------
&namcrs        !   coarsened grid (for outputs and/or TOP)              (ln_crs =T)
!-----------------------------------------------------------------------
/
!-----------------------------------------------------------------------
&namc1d        !   1D configuration options                             ("key_c1d" default: PAPA station)
!-----------------------------------------------------------------------
/
!-----------------------------------------------------------------------
&namc1d_dyndmp !   U & V newtonian damping                              ("key_c1d" default: OFF)
!-----------------------------------------------------------------------
/
!-----------------------------------------------------------------------
&namc1d_uvd    !   data: U & V currents                                 ("key_c1d" default: OFF)
!-----------------------------------------------------------------------
/

!!======================================================================
!!            ***  Surface Boundary Condition namelists  ***          !!
!!                                                                    !!
!!   namsbc          surface boundary condition manager                 (default: NO selection)
!!   namsbc_flx      flux               formulation                     (ln_flx     =T)
!!   namsbc_blk      Bulk formulae formulation                          (ln_blk     =T)
!!   namsbc_cpl      CouPLed            formulation                     ("key_oasis3" )
!!   namsbc_sas      Stand-Alone Surface module                         (SAS_SRC  only)
!!   namsbc_iif      Ice-IF: use observed ice cover                     (nn_ice = 1   )
!!   namtra_qsr      penetrative solar radiation                        (ln_traqsr  =T)
!!   namsbc_ssr      sea surface restoring term (for T and/or S)        (ln_ssr     =T)
!!   namsbc_rnf      river runoffs                                      (ln_rnf     =T)
!!   namsbc_apr      Atmospheric Pressure                               (ln_apr_dyn =T)
!!   namsbc_isf      ice shelf melting/freezing                         (ln_isfcav  =T : read (ln_read_cfg=T) or set or usr_def_zgr )
!!   namsbc_iscpl    coupling option between land ice model and ocean   (ln_isfcav  =T)
!!   namsbc_wave     external fields from wave model                    (ln_wave    =T)
!!   namberg         iceberg floats                                     (ln_icebergs=T)
!!======================================================================
!
!-----------------------------------------------------------------------
&namsbc        !   Surface Boundary Condition manager                   (default: NO selection)
!-----------------------------------------------------------------------
   nn_fsbc     = 1         !  frequency of SBC module call (control sea-ice & iceberg model call)
                     ! Type of air-sea fluxes 
   ln_usr      = .false.   !  user defined formulation                  (T => check usrdef_sbc)
   ln_flx      = .false.   !  flux formulation                          (T => fill namsbc_flx )
   ln_blk      = .true.    !  Bulk formulation                          (T => fill namsbc_blk )
      !              ! Type of coupling (Ocean/Ice/Atmosphere) :
   ln_cpl      = .false.   !  atmosphere coupled   formulation          ( requires key_oasis3 )
   ln_mixcpl   = .false.   !  forced-coupled mixed formulation          ( requires key_oasis3 )
   nn_components = 0       !  configuration of the opa-sas OASIS coupling
      !                    !  =0 no opa-sas OASIS coupling: default single executable config.
      !                    !  =1 opa-sas OASIS coupling: multi executable config., OPA component
      !                    !  =2 opa-sas OASIS coupling: multi executable config., SAS component 
                     ! Sea-ice :
   nn_ice      = 2         !  =0 no ice boundary condition    
      !                    !  =1 use observed ice-cover                 (  => fill namsbc_iif )
      !                    !  =2 or 3 automatically for SI3 or CICE    ("key_si3" or "key_cice")
      !                    !          except in AGRIF zoom where it has to be specified
   ln_ice_embd = .false.   !  =T embedded sea-ice (pressure + mass and salt exchanges)
      !                    !  =F levitating ice (no pressure, mass and salt exchanges)
                     ! Misc. options of sbc : 
   ln_traqsr   = .true.    !  Light penetration in the ocean            (T => fill namtra_qsr)
   ln_dm2dc    = .true.    !  daily mean to diurnal cycle on short wave
   ln_ssr      = .false.   !  Sea Surface Restoring on T and/or S       (T => fill namsbc_ssr)
   nn_fwb      = 1         !  FreshWater Budget: =0 unchecked
      !                    !     =1 global mean of e-p-r set to zero at each time step
      !                    !     =2 annual global mean of e-p-r set to zero
   ln_rnf      = .true.    !  runoffs                                   (T => fill namsbc_rnf)
   ln_apr_dyn  = .false.   !  Patm gradient added in ocean & ice Eqs.   (T => fill namsbc_apr )
   ln_isf      = .true.    !  ice shelf                                 (T   => fill namsbc_isf & namsbc_iscpl)
   ln_wave     = .false.   !  Activate coupling with wave  (T => fill namsbc_wave)
   ln_cdgw     = .false.   !  Neutral drag coefficient read from wave model (T => ln_wave=.true. & fill namsbc_wave)
   ln_sdw      = .false.   !  Read 2D Surf Stokes Drift & Computation of 3D stokes drift (T => ln_wave=.true. & fill namsbc_wave) 
   nn_sdrift   =  0        !  Parameterization for the calculation of 3D-Stokes drift from the surface Stokes drift
      !                    !   = 0 Breivik 2015 parameterization: v_z=v_0*[exp(2*k*z)/(1-8*k*z)]
      !                    !   = 1 Phillips:                      v_z=v_o*[exp(2*k*z)-beta*sqrt(-2*k*pi*z)*erfc(sqrt(-2*k*z))]
      !                    !   = 2 Phillips as (1) but using the wave frequency from a wave model
   ln_tauwoc   = .false.   !  Activate ocean stress modified by external wave induced stress (T => ln_wave=.true. & fill namsbc_wave)
   ln_tauw     = .false.   !  Activate ocean stress components from wave model
   ln_stcor    = .false.   !  Activate Stokes Coriolis term (T => ln_wave=.true. & ln_sdw=.true. & fill namsbc_wave)
   nn_lsm      = 0         !  =0 land/sea mask for input fields is not applied (keep empty land/sea mask filename field) ,
                           !  =1:n number of iterations of land/sea mask application for input fields (fill land/sea mask filename field)
/
!-----------------------------------------------------------------------
&namsbc_flx    !   surface boundary condition : flux formulation        (ln_flx =T)
!-----------------------------------------------------------------------
/
!-----------------------------------------------------------------------
&namsbc_blk    !   namsbc_blk  generic Bulk formula                     (ln_blk =T)
!-----------------------------------------------------------------------
   !                    !  bulk algorithm :
   ln_NCAR      = .true.    ! "NCAR"      algorithm   (Large and Yeager 2008)
   ln_COARE_3p0 = .false.   ! "COARE 3.0" algorithm   (Fairall et al. 2003)
   ln_COARE_3p5 = .false.   ! "COARE 3.5" algorithm   (Edson et al. 2013)
   ln_ECMWF     = .false.   ! "ECMWF"     algorithm   (IFS cycle 31)
      !
      rn_zqt      = 10.       !  Air temperature & humidity reference height (m)
      rn_zu       = 10.       !  Wind vector reference height (m)
      ln_Cd_L12   = .false.   !  air-ice drags = F(ice concentration) (Lupkes et al. 2012)
      ln_Cd_L15   = .false.   !  air-ice drags = F(ice concentration) (Lupkes et al. 2015)
      ln_taudif   = .false.   !  HF tau contribution: use "mean of stress module - module of the mean stress" data
      rn_pfac     = 1.        !  multiplicative factor for precipitation (total & snow)
      rn_efac     = 1.        !  multiplicative factor for evaporation (0. or 1.)
      rn_vfac     = 1.        !  multiplicative factor for ocean & ice velocity used to
      !                       !  calculate the wind stress (0.=absolute or 1.=relative winds)
   cn_dir      = './FORCING/'  !  root directory for the bulk data location
   !___________!________________________________!___________________!____________!_____________!_________!____________!___________________________!__________!_______________!
   !           !  file name                     ! frequency (hours) !  variable  ! time interp.!  clim   ! 'yearly'/  !      weights filename     ! rotation ! land/sea mask !
   !           !                                !  (if <0  months)  !    name    !   (logical) !  (T/F)  ! 'monthly'  !                           ! pairing  !    filename   !
   sn_wndi     = 'U_10_MOD_15JUNE2009_unmasked' ,         6         ,  'U_10_MOD',    .true.     , .true. ,  'yearly'  , 'weights_bicub_munday.nc' ,   'U1'   ,        ''
   sn_wndj     = 'V_10_MOD_15JUNE2009_unmasked' ,         6         ,  'V_10_MOD',    .true.     , .true. ,  'yearly'  , 'weights_bicub_munday.nc' ,   'V1'   ,        ''
   sn_qsr      = 'SWDN_MOD_15JUNE2009_unmasked' ,         24        ,  'SWDN_MOD',    .false.    , .true. ,  'yearly'  , 'weights_bilin_munday.nc' ,    ''    ,        ''
   sn_qlw      = 'LWDN_MOD_15JUNE2009_unmasked' ,         24        ,  'LWDN_MOD',    .false.    , .true. ,  'yearly'  , 'weights_bilin_munday.nc' ,    ''    ,        ''
   sn_tair     = 'T_10_MOD_15JUNE2009_unmasked' ,         6         ,  'T_10_MOD',    .true.     , .true. ,  'yearly'  , 'weights_bilin_munday.nc' ,    ''    ,        ''
   sn_humi     = 'Q_10_MOD_15JUNE2009_unmasked' ,         6         ,  'Q_10_MOD',    .true.     , .true. ,  'yearly'  , 'weights_bilin_munday.nc' ,    ''    ,        ''
   sn_prec     = 'TPRECIP_15JUNE2009_unmasked'  ,         -1        ,  'TPRECIP' ,    .true.     , .true. ,  'yearly'  , 'weights_bilin_munday.nc' ,    ''    ,        ''
   sn_snow     = 'SNOW_15JUNE2009_unmasked'     ,         -1        ,  'SNOW'    ,    .true.     , .true. ,  'yearly'  , 'weights_bilin_munday.nc' ,    ''    ,        ''
   sn_slp      = 'SLP.15JUNE2009'               ,         6         ,  'SLP'     ,    .true.     , .true. ,  'yearly'  , 'weights_bilin_munday.nc' ,    ''    ,        ''
   sn_cc       = 'NOT USED'                     ,        24.        , 'CC'       ,    .false.  , .true.  ,  'yearly'  , 'weights_bicub_munday.nc' ,    ''    ,        ''
   sn_tdif     = 'taudif_core'                  ,        24.        , 'taudif'   ,    .false.  , .true.  ,  'yearly'  , 'weights_bilin_munday.nc' ,    ''    ,        ''
/
!-----------------------------------------------------------------------
&namsbc_cpl    !   coupled ocean/atmosphere model                       ("key_oasis3")
!-----------------------------------------------------------------------
/
!-----------------------------------------------------------------------
&namsbc_sas    !   Stand-Alone Surface module: ocean data               (SAS_SRC  only)
!-----------------------------------------------------------------------
/
!-----------------------------------------------------------------------
&namsbc_iif    !   Ice-IF : use observed ice cover                      (nn_ice = 1)
!-----------------------------------------------------------------------
/
!-----------------------------------------------------------------------
&namtra_qsr    !   penetrative solar radiation                          (ln_traqsr =T)
!-----------------------------------------------------------------------
   !                          !  type of penetration                        (default: NO selection)
   ln_qsr_rgb  = .false.      !  RGB light penetration (Red-Green-Blue)
   ln_qsr_2bd  = .true.       !  2BD light penetration (two bands)
   ln_qsr_bio  = .false.      !  bio-model light penetration
   !                       !  RGB & 2BD choices:
   rn_abs      =   0.58       !  RGB & 2BD: fraction absorbed in the very near surface
   rn_si0      =   0.35       !  RGB & 2BD: shortess depth of extinction
   nn_chldta   =      0       !  RGB : Chl data (=1) or cst value (=0)
   rn_si1      =   23.0       !  2BD : longest depth of extinction
   cn_dir      = './'      !  root directory for the chlorophyl data location
   !___________!_________________________!___________________!___________!_____________!________!___________!__________________!__________!_______________!
   !           !  file name              ! frequency (hours) ! variable  ! time interp.!  clim  ! 'yearly'/ ! weights filename ! rotation ! land/sea mask !
   !           !                         !  (if <0  months)  !   name    !   (logical) !  (T/F) ! 'monthly' !                  ! pairing  !    filename   !
   sn_chl      ='chlorophyll'            ,        -1.        , 'CHLA'    ,   .true.    , .true. , 'yearly'  , ''               , ''       , ''
/
!-----------------------------------------------------------------------
&namsbc_ssr    !   surface boundary condition : sea surface restoring   (ln_ssr =T)
!-----------------------------------------------------------------------
/
!-----------------------------------------------------------------------
&namsbc_rnf    !   runoffs                                              (ln_rnf =T)
!-----------------------------------------------------------------------
   ln_rnf_mouth   = .true.    !  specific treatment at rivers mouths
      rn_hrnf     =  10.e0    !  depth over which enhanced vertical mixing is used    (ln_rnf_mouth=T)
      rn_avt_rnf  =   2.e-3   !  value of the additional vertical mixing coef. [m2/s] (ln_rnf_mouth=T)
   rn_rfact    =   1.e0    !  multiplicative factor for runoff
   ln_rnf_depth = .false.   !  read in depth information for runoff
   ln_rnf_tem  = .false.   !  read in temperature information for runoff
   ln_rnf_sal  = .false.   !  read in salinity information for runoff
   ln_rnf_depth_ini = .false. ! compute depth at initialisation from runoff file
      rn_rnf_max  = 5.735e-4  !  max value of the runoff climatologie over global domain ( ln_rnf_depth_ini = .true )
      rn_dep_max  = 150.      !  depth over which runoffs is spread ( ln_rnf_depth_ini = .true )
      nn_rnf_depth_file = 0   !  create (=1) a runoff depth file or not (=0)
   ln_rnf_icb  = .false.   !  read in iceberg flux from a file (fill sn_i_rnf if .true.)
   cn_dir      = './FORCING/'  !  root directory for the runoff data location
   !___________!_________________________________!___________________!___________!_____________!________!___________!__________________!__________!_______________!
   !           !  file name                      ! frequency (hours) ! variable  ! time interp.!  clim  ! 'yearly'/ ! weights filename ! rotation ! land/sea mask !
   !           !                                 !  (if <0  months)  !   name    !   (logical) !  (T/F) ! 'monthly' !                  ! pairing  !    filename   !
   sn_rnf      = 'eORCA12_runoff_munday_modified',        -1         , 'sorunoff',   .true.    , .true. , 'yearly'  ,        ''        ,    ''    ,      ''
   sn_cnf      = 'eORCA12_runoff_munday_modified',        -12        , 'socoefr' ,   .false.   , .true. , 'yearly'  ,        ''        ,    ''    ,      ''
   sn_s_rnf    = 'runoffs'                       ,        24.        , 'rosaline',   .true.    , .true. , 'yearly'  ,        ''        ,    ''    ,      ''
   sn_t_rnf    = 'runoffs'                       ,        24.        , 'rotemper',   .true.    , .true. , 'yearly'  ,        ''        ,    ''    ,      ''
   sn_dep_rnf  = 'runoffs'                       ,         0.        , 'rodepth' ,   .false.   , .true. , 'yearly'  ,        ''        ,    ''    ,      ''
   sn_i_rnf    = 'NOT_USED'                      ,        -1.        , 'sorunoff',   .true.    , .true. , 'yearly'  ,        ''        ,    ''    ,      ''
/
!-----------------------------------------------------------------------
&namsbc_apr    !   Atmospheric pressure used as ocean forcing           (ln_apr_dyn =T)
!-----------------------------------------------------------------------
/
!-----------------------------------------------------------------------
&namsbc_isf    !  Top boundary layer (ISF)                              (ln_isfcav =T : read (ln_read_cfg=T) 
!-----------------------------------------------------------------------             or set or usr_def_zgr )
   !                       ! type of top boundary layer 
   nn_isf      = 3         !  ice shelf melting/freezing
                           !  1 = presence of ISF   ;  2 = bg03 parametrisation 
                           !  3 = rnf file for ISF  ;  4 = ISF specified freshwater flux
   !____________!____________________________________________!___________________!____________!______________!_________!___________!__________!__________!_______________!
   !            !  file name                                 ! frequency (hours) !  variable  ! time interp. !  clim   ! 'yearly'/ ! weights  ! rotation ! land/sea mask !
   !            !                                            !  (if <0  months)  !    name    !   (logical)  !  (T/F)  ! 'monthly' ! filename ! pairing  ! filename      !
   sn_rnfisf    = './FORCING/eORCA12_runoff_munday_modified' ,        -1         , 'sofwfisf' ,    .true.     , .true. , 'yearly'  ,    ''    ,    ''    ,       ''
   sn_depmax_isf= './FORCING/eORCA12_runoff_munday_modified' ,        -12        , 'sozisfmax',    .false.    , .true. , 'yearly'  ,    ''    ,    ''    ,       ''
   sn_depmin_isf= './FORCING/eORCA12_runoff_munday_modified' ,        -12        , 'sozisfmin',    .false.    , .true. , 'yearly'  ,    ''    ,    ''    ,       ''
/
!-----------------------------------------------------------------------
&namsbc_iscpl  !   land ice / ocean coupling option                     (ln_isfcav =T : read (ln_read_cfg=T) 
!-----------------------------------------------------------------------             or set or usr_def_zgr )
/
!-----------------------------------------------------------------------
&namsbc_wave   ! External fields from wave model                        (ln_wave=T)
!-----------------------------------------------------------------------
/
!-----------------------------------------------------------------------
&namberg       !   iceberg parameters                                   (default: OFF)
!-----------------------------------------------------------------------
   ln_icebergs = .false.      ! activate iceberg floats (force =F with "key_agrif")
   !
   !                          ! diagnostics:
   ln_bergdia        = .true.        ! Calculate budgets
   nn_verbose_level  = 0             ! Turn on more verbose output if level > 0
   nn_verbose_write  = 15            ! Timesteps between verbose messages
   nn_sample_rate    = 1             ! Timesteps between sampling for trajectory storage
   !
   !                          ! iceberg setting:
   !                                 ! Initial mass required for an iceberg of each class
   rn_initial_mass   = 8.8e7, 4.1e8, 3.3e9, 1.8e10, 3.8e10, 7.5e10, 1.2e11, 2.2e11, 3.9e11, 7.4e11
   !                                 ! Proportion of calving mass to apportion to each class
   rn_distribution   = 0.24, 0.12, 0.15, 0.18, 0.12, 0.07, 0.03, 0.03, 0.03, 0.02
   !                                 ! Ratio between effective and real iceberg mass (non-dim)
   !                                 ! i.e. number of icebergs represented at a point
   rn_mass_scaling   = 2000., 200., 50., 20., 10., 5., 2., 1., 1., 1.
                                     ! thickness of newly calved bergs (m)
   rn_initial_thickness     = 40., 67., 133., 175., 250., 250., 250., 250., 250., 250.
   !
   rn_rho_bergs            = 850.    ! Density of icebergs
   rn_LoW_ratio            = 1.5     ! Initial ratio L/W for newly calved icebergs
   ln_operator_splitting   = .true.  ! Use first order operator splitting for thermodynamics
   rn_bits_erosion_fraction = 0.     ! Fraction of erosion melt flux to divert to bergy bits
   rn_sicn_shift           = 0.      ! Shift of sea-ice concn in erosion flux (0<sicn_shift<1)
   ln_passive_mode         = .false. ! iceberg - ocean decoupling
   nn_test_icebergs        =  10     ! Create test icebergs of this class (-1 = no)
   !                                 ! Put a test iceberg at each gridpoint in box (lon1,lon2,lat1,lat2)
   rn_test_box             = 108.0,  116.0, -66.0, -58.0
   ln_use_calving          = .false. ! Use calving data even when nn_test_icebergs > 0
   rn_speed_limit          = 0.      ! CFL speed limit for a berg (safe value is 0.4, see #2581)

   cn_dir      = './FORCING/'         !  root directory for the calving data location
   !___________!__________________________!___________________!___________!_____________!________!___________!__________________!__________!_______________!